>>> text_indentation = __import__('5-text_indentation').text_indentation

# Example 1
>>> text_indentation("Hello?")
Hello?
<BLANKLINE>

# Example 2
>>> text_indentation(" Hi there.")
Hi there.
<BLANKLINE>

# Example 3
>>> text_indentation("          ")

# Example 4
>>> text_indentation("Hello.   ")
Hello
<BLANKLINE>

# Example 5
>>> text_indentation("    Woah now.    This is messy.   ")
Woah now.
<BLANKLINE>
This is messy.
<BLANKLINE>

# Example 6
>>> text_indentation("No ending period, what bad grammar")
No ending period, what bad grammar

# Example 7
>>> text_indentation("Let's print a new-line! Here goes:\nPrinted.")
Let's print a new-line! Here goes:
<BLANKLINE>
<BLANKLINE>
Printed
<BLANKLINE>

# Example 8
>>> text_indentation("\n\n\n We just printed three new lines.")
A sneaky
new line.
<BLANKLINE>

